*Heading
** Job name: simple_rat_400 Model name: simple_rat
** Generated by: Abaqus/CAE 2021
*Preprint, echo=NO, model=NO, history=NO, contact=NO
**
** PARTS
**
*Part, name=Part-1
*End Part
**  
*Part, name=Part-2
*End Part
**  
**
** ASSEMBLY
**
*Assembly, name=Assembly
**  
*Instance, name=Part-1-1, part=Part-1
*Node
      1,           0.,           1.,           7.
      2,           0.,           1.,           0.
      3,           0.,           2.,           0.
      4,           0.,           2.,           7.
      5, -0.382683426,  0.923879504,           7.
      6, -0.707106769,  0.707106769,           7.
      7, -0.923879504,  0.382683426,           7.
      8,          -1.,           0.,           7.
      9, -0.923879504, -0.382683426,           7.
     10, -0.707106769, -0.707106769,           7.
     11, -0.382683426, -0.923879504,           7.
     12,           0.,          -1.,           7.
     13,  0.382683426, -0.923879504,           7.
     14,  0.707106769, -0.707106769,           7.
     15,  0.923879504, -0.382683426,           7.
     16,           1.,           0.,           7.
     17,  0.923879504,  0.382683426,           7.
     18,  0.707106769,  0.707106769,           7.
     19,  0.382683426,  0.923879504,           7.
     20, -0.382683426,  0.923879504,           0.
** ... 1606 like lines cut
*Element, type=C3D4
   1,  957,  958,  391,  388
   2,  243,  959,  960,  227
   3,  957,   56,  935,   55
   4,  957,  934,   56,  390
   5,  904,  961,  935,  962
   6,  961,  935,  962,  957
   7,  963,  964,  965,  966
   8,  967,  451,  968,  969
   9,  967,  969,  433,  451
  10,  967,   82,  477,   81
  11,  432,  970,  969,  967
  12,  971,  972,  973,  974
  13,  967,  432,  478,   82
  14,  975,   75,  471,  456
  15,  975,  976,  977,  472
  16,  975,  977,  976,  978
  17,  975,  977,  978,  979
  18,  975,  977,  980,  471
  19,  981,  982,  983,  984
  20,  985,  986,  987,  400
** ... 6828 like lines cut
*Nset, nset=Set-1, generate
    1,  1626,     1
*Elset, elset=Set-1, generate
    1,  6848,     1
** Section: Section-1
*Solid Section, elset=Set-1, material=Material-1
,
*End Instance
**  
*Instance, name=Part-2-1, part=Part-2
*Node
      1,           0.,           1.,           0.
      2,           0.,           1.,           7.
      3, -0.382683426,  0.923879504,           0.
      4, -0.707106769,  0.707106769,           0.
      5, -0.923879504,  0.382683426,           0.
      6,          -1.,           0.,           0.
      7, -0.923879504, -0.382683426,           0.
      8, -0.707106769, -0.707106769,           0.
      9, -0.382683426, -0.923879504,           0.
     10,           0.,          -1.,           0.
     11,  0.382683426, -0.923879504,           0.
     12,  0.707106769, -0.707106769,           0.
     13,  0.923879504, -0.382683426,           0.
     14,           1.,           0.,           0.
     15,  0.923879504,  0.382683426,           0.
     16,  0.707106769,  0.707106769,           0.
     17,  0.382683426,  0.923879504,           0.
     18,  0.382683426,  0.923879504,           7.
     19,  0.707106769,  0.707106769,           7.
     20,  0.923879504,  0.382683426,           7.
** ... 559 like lines cut
*Element, type=C3D4
   1, 334, 335, 336, 337
   2, 334, 338, 339, 340
   3, 341, 334, 342, 343
   4, 344, 334, 342, 341
   5, 345, 335, 346, 334
   6, 334, 339, 338, 342
   7, 334, 347, 339, 336
   8, 348, 349, 350, 351
   9, 348, 350, 352, 353
  10, 354, 355, 335, 346
  11, 354, 356, 335, 357
  12, 346, 358, 334, 354
  13, 359, 360, 361, 125
  14, 334, 336, 339, 342
  15, 354, 362, 347, 336
  16, 354, 335, 362, 336
  17, 336, 354, 334, 347
  18, 363, 364, 365, 366
  19, 365, 367,  54, 324
  20, 366, 365,  53, 364
** ... 2336 like lines cut
*Nset, nset=Set-1, generate
   1,  579,    1
*Elset, elset=Set-1, generate
    1,  2356,     1
** Section: Section-2
*Solid Section, elset=Set-1, material=Material-2
,
*End Instance
**  
*Node
      1,           0.,           0.,           7.
*Nset, nset=RP
 1,
*Nset, nset=m_Set-1, instance=Part-1-1
   2,   3,  20,  21,  22,  23,  24,  25,  26,  27,  28,  29,  30,  31,  32,  33
  34,  35,  36,  37,  38,  39,  40,  41,  42,  43,  44,  45,  46,  47,  48,  49
  50,  51,  52,  53,  54,  55,  56,  57,  58,  59,  60,  61,  62,  63,  64, 367
 368, 369, 370, 371, 372, 373, 374, 375, 376, 377, 378, 379, 380, 381, 382, 383
 384, 385, 386, 387, 388, 389, 390, 391, 392, 393, 394, 395, 396, 397, 398, 399
 400, 401, 402, 403, 404, 405, 406, 407, 408, 409, 410, 411, 412, 413
*Nset, nset=m_Set-1, instance=Part-2-1
  1,  3,  4,  5,  6,  7,  8,  9, 10, 11, 12, 13, 14, 15, 16, 17
 33, 34, 35, 36, 37, 38, 39, 40, 41, 42, 43, 44, 45, 46
*Nset, nset=m_Set-2, instance=Part-1-1
   1,   4,   5,   6,   7,   8,   9,  10,  11,  12,  13,  14,  15,  16,  17,  18
  19,  65,  66,  67,  68,  69,  70,  71,  72,  73,  74,  75,  76,  77,  78,  79
  80,  81,  82,  83,  84,  85,  86,  87,  88,  89,  90,  91,  92,  93,  94, 414
 415, 416, 417, 418, 419, 420, 421, 422, 423, 424, 425, 426, 427, 428, 429, 430
 431, 432, 433, 434, 435, 436, 437, 438, 439, 440, 441, 442, 443, 444, 445, 446
 447, 448, 449, 450, 451, 452, 453, 454, 455, 456, 457, 458, 459, 460
*Nset, nset=m_Set-2, instance=Part-2-1
   2,  18,  19,  20,  21,  22,  23,  24,  25,  26,  27,  28,  29,  30,  31,  32
 319, 320, 321, 322, 323, 324, 325, 326, 327, 328, 329, 330, 331, 332, 333
*Surface, type=NODE, name=m_Set-2_CNS_, internal
m_Set-2, 1.
** Constraint: TIE_LOAD
*Coupling, constraint name=TIE_LOAD, ref node=RP, surface=m_Set-2_CNS_
*Kinematic
*End Assembly
** 
** MATERIALS
** 
*Material, name=Material-1
*Elastic
5000., 0.3
*Material, name=Material-2
*Elastic
200., 0.167
** ----------------------------------------------------------------
** 
** STEP: Step-1
** 
*Step, name=Step-1, nlgeom=NO
*Static
1., 1., 1e-05, 1.
** 
** OUTPUT REQUESTS
** 
*Restart, write, frequency=0
** 
** FIELD OUTPUT: F-Output-1
** 
*Output, field, variable=PRESELECT
** 
** HISTORY OUTPUT: H-Output-1
** 
*Output, history, variable=PRESELECT
*End Step
