*Heading
** Job name: simple_rat_1000 Model name: simple_rat_1000
** Generated by: Abaqus/CAE 2021
*Preprint, echo=NO, model=NO, history=NO, contact=NO
**
** PARTS
**
*Part, name=Part-1
*End Part
**  
*Part, name=Part-2
*End Part
**  
**
** ASSEMBLY
**
*Assembly, name=Assembly
**  
*Instance, name=Part-1-1, part=Part-1
*Node
      1,           0.,           1.,           7.
      2,           0.,           1.,           0.
      3,           0.,           2.,           0.
      4,           0.,           2.,           7.
      5, -0.707106769,  0.707106769,           7.
      6,          -1.,           0.,           7.
      7, -0.707106769, -0.707106769,           7.
      8,           0.,          -1.,           7.
      9,  0.707106769, -0.707106769,           7.
     10,           1.,           0.,           7.
     11,  0.707106769,  0.707106769,           7.
     12, -0.707106769,  0.707106769,           0.
     13,          -1.,           0.,           0.
     14, -0.707106769, -0.707106769,           0.
     15,           0.,          -1.,           0.
     16,  0.707106769, -0.707106769,           0.
     17,           1.,           0.,           0.
     18,  0.707106769,  0.707106769,           0.
     19,  -0.92944634,   1.77091205,           0.
     20,  -1.64596772,    1.1361295,           0.
** ... 202 like lines cut
*Element, type=C3D4
  1, 185,  34,  10,   9
  2, 185, 109,  33,  34
  3, 185, 110,  48, 109
  4, 186, 187, 153, 152
  5, 186, 187, 152,  78
  6, 174,  97, 161, 173
  7,  88,  95, 188,  87
  8, 186, 166, 153,  85
  9, 186, 165, 166,  85
 10, 186, 165,  86, 152
 11,  27, 189,  17, 104
 12,  28,  27, 189,  17
 13, 189, 173, 105, 174
 14, 189, 105, 173,  29
 15, 189, 104, 174, 105
 16,  17,  29, 105, 189
 17, 112, 190, 191,  46
 18, 192, 193,  24, 178
 19, 192, 102, 193, 178
 20, 193, 194,  23, 179
** ... 724 like lines cut
*Nset, nset=Set-1, generate
   1,  222,    1
*Elset, elset=Set-1, generate
   1,  744,    1
** Section: Section-1
*Solid Section, elset=Set-1, material=Material-1
,
*End Instance
**  
*Instance, name=Part-2-1, part=Part-2
*Node
      1,           0.,           1.,           0.
      2,           0.,           1.,           7.
      3, -0.707106769,  0.707106769,           0.
      4,          -1.,           0.,           0.
      5, -0.707106769, -0.707106769,           0.
      6,           0.,          -1.,           0.
      7,  0.707106769, -0.707106769,           0.
      8,           1.,           0.,           0.
      9,  0.707106769,  0.707106769,           0.
     10,  0.707106769,  0.707106769,           7.
     11,           1.,           0.,           7.
     12,  0.707106769, -0.707106769,           7.
     13,           0.,          -1.,           7.
     14, -0.707106769, -0.707106769,           7.
     15,          -1.,           0.,           7.
     16, -0.707106769,  0.707106769,           7.
     17, -0.158106357,  0.325598449,           0.
     18, -0.306635022, -0.308590502,           0.
     19,  0.324912041, -0.163832009,           0.
     20,  0.707106769,  0.707106769,   6.22222233
** ... 90 like lines cut
*Element, type=C3D4
  1,  87,  88,  89,  90
  2,  87,  51,  88,  91
  3,  87,  92,  45,  91
  4,  87,  88,  51,  59
  5,  85,  12,  93,  94
  6,  95,  49,  88,  90
  7,  31,  96,  23,  30
  8,  97,  92,  98,  99
  9,  89,  87, 100,  59
 10,  25, 101,  93,  24
 11,  88,  89,  90,  57
 12,  59,  88,  89,  87
 13, 102,  82, 103,  81
 14, 103,  18, 104,  80
 15, 103,  80,  81,   5
 16, 102,  81, 103,  80
 17, 103,   4,   5,  81
 18, 103,  82,   3,   4
 19, 103,  82,  17,   3
 20,  97,  42,  35,  43
** ... 312 like lines cut
*Nset, nset=Set-1, generate
   1,  110,    1
*Elset, elset=Set-1, generate
   1,  332,    1
** Section: Section-2
*Solid Section, elset=Set-1, material=Material-2
,
*End Instance
**  
*Node
      1,           0.,           0.,           7.
*Nset, nset=RP
 1,
*Nset, nset=m_Set-1, instance=Part-1-1
  2,  3, 12, 13, 14, 15, 16, 17, 18, 19, 20, 21, 22, 23, 24, 25
 26, 27, 28, 29, 30
*Nset, nset=m_Set-1, instance=Part-2-1
  1,  3,  4,  5,  6,  7,  8,  9, 17, 18, 19
*Nset, nset=m_Set-2, instance=Part-1-1
  1,  4,  5,  6,  7,  8,  9, 10, 11, 31, 32, 33, 34, 35, 36, 37
 38, 39, 40, 41, 42
*Nset, nset=m_Set-2, instance=Part-2-1
  2, 10, 11, 12, 13, 14, 15, 16, 84, 85, 86
*Surface, type=NODE, name=m_Set-2_CNS_, internal
m_Set-2, 1.
** Constraint: TIE_LOAD
*Coupling, constraint name=TIE_LOAD, ref node=RP, surface=m_Set-2_CNS_
*Kinematic
*End Assembly
** 
** MATERIALS
** 
*Material, name=Material-1
*Elastic
5000., 0.3
*Material, name=Material-2
*Elastic
200., 0.167
** ----------------------------------------------------------------
** 
** STEP: Step-1
** 
*Step, name=Step-1, nlgeom=NO
*Static
1., 1., 1e-05, 1.
** 
** OUTPUT REQUESTS
** 
*Restart, write, frequency=0
** 
** FIELD OUTPUT: F-Output-1
** 
*Output, field, variable=PRESELECT
** 
** HISTORY OUTPUT: H-Output-1
** 
*Output, history, variable=PRESELECT
*End Step
