*Heading
** Job name: simple_rat_600 Model name: simple_rat
** Generated by: Abaqus/CAE 2021
*Preprint, echo=NO, model=NO, history=NO, contact=NO
**
** PARTS
**
*Part, name=Part-1
*End Part
**  
*Part, name=Part-2
*End Part
**  
**
** ASSEMBLY
**
*Assembly, name=Assembly
**  
*Instance, name=Part-1-1, part=Part-1
*Node
      1,           0.,           1.,           7.
      2,           0.,           1.,           0.
      3,           0.,           2.,           0.
      4,           0.,           2.,           7.
      5, -0.587785244,  0.809017003,           7.
      6,  -0.95105654,  0.309017003,           7.
      7,  -0.95105654, -0.309017003,           7.
      8, -0.587785244, -0.809017003,           7.
      9,           0.,          -1.,           7.
     10,  0.587785244, -0.809017003,           7.
     11,   0.95105654, -0.309017003,           7.
     12,   0.95105654,  0.309017003,           7.
     13,  0.587785244,  0.809017003,           7.
     14, -0.587785244,  0.809017003,           0.
     15,  -0.95105654,  0.309017003,           0.
     16,  -0.95105654, -0.309017003,           0.
     17, -0.587785244, -0.809017003,           0.
     18,           0.,          -1.,           0.
     19,  0.587785244, -0.809017003,           0.
     20,   0.95105654, -0.309017003,           0.
** ... 547 like lines cut
*Element, type=C3D4
   1, 430,  72, 431, 432
   2, 430, 431, 218, 432
   3, 430, 433, 219, 199
   4, 219, 196,   4, 218
   5, 195, 196,   4, 219
   6, 430, 431, 196, 218
   7, 434, 435,  70, 436
   8, 339, 115, 338, 437
   9, 434, 184, 182,  12
  10, 434, 438,  69, 435
  11, 434,  11, 184,  12
  12, 438, 185, 183,  11
  13, 438, 183, 204,  48
  14, 434, 435,  69,  70
  15, 438, 183, 184,  11
  16, 438, 435, 204, 439
  17, 440,  20, 441, 173
  18, 174, 172,  36, 415
  19, 440, 442, 441, 159
  20, 345, 122, 443, 444
** ... 2018 like lines cut
*Nset, nset=Set-1, generate
   1,  567,    1
*Elset, elset=Set-1, generate
    1,  2038,     1
** Section: Section-1
*Solid Section, elset=Set-1, material=Material-1
,
*End Instance
**  
*Instance, name=Part-2-1, part=Part-2
*Node
      1,           0.,           1.,           0.
      2,           0.,           1.,           7.
      3, -0.587785244,  0.809017003,           0.
      4,  -0.95105654,  0.309017003,           0.
      5,  -0.95105654, -0.309017003,           0.
      6, -0.587785244, -0.809017003,           0.
      7,           0.,          -1.,           0.
      8,  0.587785244, -0.809017003,           0.
      9,   0.95105654, -0.309017003,           0.
     10,   0.95105654,  0.309017003,           0.
     11,  0.587785244,  0.809017003,           0.
     12,  0.587785244,  0.809017003,           7.
     13,   0.95105654,  0.309017003,           7.
     14,   0.95105654, -0.309017003,           7.
     15,  0.587785244, -0.809017003,           7.
     16,           0.,          -1.,           7.
     17, -0.587785244, -0.809017003,           7.
     18,  -0.95105654, -0.309017003,           7.
     19,  -0.95105654,  0.309017003,           7.
     20, -0.587785244,  0.809017003,           7.
** ... 158 like lines cut
*Element, type=C3D4
  1, 129,  42,  41,  32
  2, 130, 131, 106, 132
  3, 130,  96, 132, 106
  4, 133, 134, 135, 132
  5, 130, 136, 104, 114
  6, 130, 133, 136, 131
  7, 130, 136, 114, 105
  8,  15,  28, 127, 128
  9, 133, 137, 131, 132
 10, 136, 138, 139, 133
 11, 140,  98,  88,  89
 12, 141, 135, 139, 138
 13, 133, 131, 137, 142
 14, 133, 136, 142, 139
 15, 143, 144, 138, 141
 16, 143, 138, 144,  94
 17, 145, 146, 147,  29
 18,  92, 148, 149, 143
 19, 143,  84,  83, 148
 20, 131, 150, 115, 116
** ... 576 like lines cut
*Nset, nset=Set-1, generate
   1,  178,    1
*Elset, elset=Set-1, generate
   1,  596,    1
** Section: Section-2
*Solid Section, elset=Set-1, material=Material-2
,
*End Instance
**  
*Node
      1,           0.,           0.,           7.
*Nset, nset=RP
 1,
*Nset, nset=m_Set-1, instance=Part-1-1
   2,   3,  14,  15,  16,  17,  18,  19,  20,  21,  22,  23,  24,  25,  26,  27
  28,  29,  30,  31,  32,  33,  34,  35,  36,  37,  38,  39,  40,  41,  42, 163
 164, 165, 166, 167, 168, 169, 170, 171, 172, 173, 174, 175, 176, 177, 178, 179
 180,
*Nset, nset=m_Set-1, instance=Part-2-1
  1,  3,  4,  5,  6,  7,  8,  9, 10, 11, 21, 22, 23, 24
*Nset, nset=m_Set-2, instance=Part-1-1
   1,   4,   5,   6,   7,   8,   9,  10,  11,  12,  13,  43,  44,  45,  46,  47
  48,  49,  50,  51,  52,  53,  54,  55,  56,  57,  58,  59,  60,  61,  62, 181
 182, 183, 184, 185, 186, 187, 188, 189, 190, 191, 192, 193, 194, 195, 196, 197
 198,
*Nset, nset=m_Set-2, instance=Part-2-1
   2,  12,  13,  14,  15,  16,  17,  18,  19,  20, 125, 126, 127, 128
*Surface, type=NODE, name=m_Set-2_CNS_, internal
m_Set-2, 1.
** Constraint: TIE_LOAD
*Coupling, constraint name=TIE_LOAD, ref node=RP, surface=m_Set-2_CNS_
*Kinematic
*End Assembly
** 
** MATERIALS
** 
*Material, name=Material-1
*Elastic
5000., 0.3
*Material, name=Material-2
*Elastic
200., 0.167
** ----------------------------------------------------------------
** 
** STEP: Step-1
** 
*Step, name=Step-1, nlgeom=NO
*Static
1., 1., 1e-05, 1.
** 
** OUTPUT REQUESTS
** 
*Restart, write, frequency=0
** 
** FIELD OUTPUT: F-Output-1
** 
*Output, field, variable=PRESELECT
** 
** HISTORY OUTPUT: H-Output-1
** 
*Output, history, variable=PRESELECT
*End Step
